* Z:\mnt\design.r\spice\examples\3588-2.asc
C1 N003 0 2µ
L1 N004 OUT 22µ
C2 OUT 0 47µ
I1 N002 N001 SINE(0 200u 100 0 0 0 100)
Rload OUT 0 25K
C3 N003 N005 1µ
C4 N006 0 1µ
XU1 N001 N002 N005 N003 N004 OUT N006 0 0 N007 0 LTC3588-2
.tran 2
.lib LTC3588-2.sub
.backanno
.end
