* Z:\mnt\design.r\spice\examples\3608.asc
R1 OUT N006 30.1K
R2 N006 0 9.53K
D1 N005 N004 CMDSH2-3
C1 N005 0 4.7µ
L1 N002 OUT .8µ
C2 OUT 0 200µ
V1 IN 0 12
C3 N003 0 .001µ
C4 N002 N004 .22µ
C5 IN 0 47µ
C6 N008 0 1500p Rser=11.3K
R3 IN N001 187K
XU1 0 MP_01 MP_02 N002 MP_03 MP_04 MP_05 MP_06 MP_07 MP_08 MP_09 IN MP_10 MP_11 MP_12 MP_13 MP_14 MP_15 MP_16 MP_17 MP_18 MP_19 MP_20 MP_21 MP_22 MP_23 MP_24 0 N004 N003 MP_25 MP_26 MP_27 MP_28 OUT NC_29 0 N008 N005 MP_30 N001 MP_31 N006 N007 MP_32 MP_33 MP_34 MP_35 MP_36 MP_37 MP_38 MP_39 N005 LTC3608
Rload OUT 0 .3125
.model D D
.lib C:\users\brian\My Documents\LTspiceXVII\lib\cmp\standard.dio
.tran 2.2m startup
.lib LTC3608.sub
.backanno
.end
