* Z:\mnt\design.r\spice\examples\3709.asc
C1 N007 0 500p
C2 N009 0 .1µ Rser=3.32K
V1 IN 0 5
M§Q1 IN N002 N004 N004 HAT2168H
M§Q2 N004 N006 0 0 HAT2168H
L1 N004 OUT 1.22µ
C3 N003 N004 .22µ
D1 IN N003 CMDSH2-3
C4 OUT 0 500µ
C5 N011 0 680p Rser=20K
R1 N014 N013 15K
R2 N013 0 10K
XU1 N007 N011 N013 IN 0 MP_01 0 N014 OUT NC_02 N009 MP_03 N008 N010 N012 N012 IN 0 0 N015 IN N006 0 0 N004 N004 N002 N003 N005 N001 IN NC_04 LTC3709
M§Q3 IN N010 N012 N012 HAT2168H
M§Q4 N012 N015 0 0 HAT2168H
L2 N012 OUT 1.22µ
C6 N008 N012 .22µ
D2 IN N008 CMDSH2-3
R3 IN N001 324K
R4 IN N005 100K
Rload OUT 0 .05
.model D D
.lib C:\users\brian\My Documents\LTspiceXVII\lib\cmp\standard.dio
.model NMOS NMOS
.model PMOS PMOS
.lib C:\users\brian\My Documents\LTspiceXVII\lib\cmp\standard.mos
.tran 1m startup
.lib LTC3709.sub
.backanno
.end
