* Z:\mnt\design.r\spice\examples\3711.asc
M§Q1 N004 N011 0 0 Si4420DY
R1 IN N001 1.5Meg
D1 N008 N006 1N5818
C1 N008 0 4.7µ
D2 0 N004 1N5818
M§Q2 IN N003 N004 N004 Si4420DY
L1 N004 OUT 1.8µ
C2 OUT 0 470µ Rser=50m
R2 N010 N009 1K
C3 N009 0 .01µ
R3 IN N002 3.3K
V1 IN 0 6
C4 N005 0 .001µ
C5 N004 N006 .22µ
XU1 0 N005 OUT N002 N007 NC_01 N010 0 N001 N012 OUT 0 0 NC_02 IN N008 N011 0 N004 N004 N003 N006 0 0 LTC3711
Rload OUT 0 .25
.model D D
.lib C:\users\brian\My Documents\LTspiceXVII\lib\cmp\standard.dio
.model NMOS NMOS
.model PMOS PMOS
.lib C:\users\brian\My Documents\LTspiceXVII\lib\cmp\standard.mos
.tran 2.5m startup
.lib LTC3711.sub
.backanno
.end
