* Z:\mnt\design.r\spice\examples\3777.asc
M§Q1 IN N012 N014 N014 PHM21NQ15T
D2 DRVcc N010 RF04UA2D
C1 0 N003 2.2µ
M§Q2 N004 N013 N015 N015 PHM21NQ15T
M§Q3 N015 N017 N023 N023 PHM21NQ15T
V1 IN 0 36
C2 N004 0 30µ
R1 N022 0 12.1K
R2 OUT1 N022 475K
R3 N023 0 4m
C3 N010 N014 0.22µ
C4 N011 N015 0.22µ
C5 N018 0 .005µ
C6 N020 0 10n
R4 N021 N020 10K
M§Q4 N014 N016 N023 N023 PHM21NQ15T
L1 N014 N015 15µ Rpar=1K
R5 N004 OUT1 4m
R6 N019 0 56.2K
C7 OUT1 0 56µ
R7 OUT1 N005 100
R8 N004 N007 100
C8 N005 N007 4.7µ
Rload OUT1 0 10
R9 IN N008 10K
R11 N006 0 1.21K
R12 IN N006 133K
C9 DRVcc 0 10µ
C10 N021 0 100p
D1 DRVcc N011 RF04UA2D
XU1 N022 N018 N023 0 N021 0 NC_01 N019 N008 IN N004 0 N007 N005 N006 N015 N013 N011 N017 NC_02 N003 IN N016 0 N010 N012 N014 N009 DRVcc IN NC_03 MP_04 MP_05 IN N001 N002 MP_06 MP_07 MP_08 MP_09 MP_10 0 LTC3777
L2 N001 BOUT 220µ Rpar=1K
C11 BOUT 0 44µ
R10 BOUT N002 715K
R13 N002 0 51.1K
R14 BOUT 0 200
R15 N009 N003 100K
.model D D
.lib C:\users\brian\My Documents\LTspiceXVII\lib\cmp\standard.dio
.model NMOS NMOS
.model PMOS PMOS
.lib C:\users\brian\My Documents\LTspiceXVII\lib\cmp\standard.mos
.tran 7m startup
.lib LTC3777.sub
.backanno
.end
