* Z:\mnt\design.r\spice\examples\3779.asc
M§Q1 IN N015 N017 N017 PHM21NQ15T
D2 N001 N013 RF04UA2D
C1 N002 0 2.2µ
M§Q2 N004 N016 N018 N018 PHM21NQ15T
M§Q3 N018 N020 N026 N026 PHM21NQ15T
V1 IN 0 70
C2 N004 0 30µ
R1 N025 0 12.1K
R2 OUT N025 475K
R3 N026 0 4m
C3 N013 N017 .22µ
C4 N014 N018 .22µ
C5 N021 0 .005µ
C6 N023 0 10n
R4 N024 N023 10K
M§Q4 N017 N019 N026 N026 PHM21NQ15T
L1 N017 N018 15µ Rpar=1K
R5 N004 OUT 4m
R6 N022 0 56.2K
C7 OUT 0 56µ
R7 OUT N006 100
R8 N004 N008 100
C8 N006 N008 4.7µ
Rload OUT 0 10
XU1 N025 N021 N026 0 N024 0 N012 N022 N007 IN N004 0 N008 N006 N005 N018 N016 N014 N020 N003 N002 IN N019 0 N013 N015 N017 N009 N001 N010 N011 LTC3779
R9 IN N007 10K
R11 N005 0 1.21K
R12 IN N005 133K
M1 IN N010 N001 N001 Si9420DY
C9 N001 0 10µ
C10 N024 0 100p
D1 N001 N014 RF04UA2D
.model D D
.lib C:\users\brian\My Documents\LTspiceXVII\lib\cmp\standard.dio
.model NMOS NMOS
.model PMOS PMOS
.lib C:\users\brian\My Documents\LTspiceXVII\lib\cmp\standard.mos
.tran 2.5m startup
.lib LTC3779.sub
.backanno
.end
