* Z:\mnt\design.r\spice\examples\3780.asc
XU1 N003 N017 N012 0 N016 N014 0 IN 0 N018 N020 N013 N004 N006 N009 N010 0 N011 N001 N002 IN N008 N007 N005 LTC3780
M§Q1 IN N006 N009 N009 IRF7831
D1 N001 N005 BAT54
D2 N001 N004 BAT54
C1 N001 0 4.7µ
M§Q2 OUT N007 N008 N008 IRF7831
M§Q3 N008 N011 N012 N012 IRF7831
V1 IN 0 5
C2 OUT 0 100µ
R1 N014 0 7.5K
R2 OUT N014 105K
R3 N012 0 10m
C3 N004 N009 .1µ
C4 N005 N008 .1µ
C5 N017 0 .001µ
C6 N016 N015 2200p
R4 N015 0 20K
M§Q4 N009 N010 N012 N012 IRF7831
D3 N012 N009 1N5817
D4 N008 OUT 1N5817
L1 N009 N008 2µ
C7 N019 N018 .01µ
R5 N019 0 10K
V2 N020 0 SIN(1 1 250K)
Rload OUT 0 5
.model D D
.lib C:\users\brian\My Documents\LTspiceXVII\lib\cmp\standard.dio
.model NMOS NMOS
.model PMOS PMOS
.lib C:\users\brian\My Documents\LTspiceXVII\lib\cmp\standard.mos
.tran 1.5m startup
.lib LTC3780.sub
.backanno
.end
