* Z:\mnt\design.r\spice\examples\3830-1.asc
C1 N003 0 .01µ
C2 N001 0 .01µ
R1 N004 N003 15K
M§Q1 IN N002 N006 N006 Si9428DY
M§Q2 N006 N008 0 0 Si9428DY
D1 IN N005 MBR0520L
C3 N006 N005 .1µ
L1 N006 OUT 3.2µ
C4 OUT 0 270µ Rser=.01
V1 IN 0 5
R2 OUT N007 4.3K
R3 N007 0 10.2K
C5 OUT N007 .0033µ
XU1 N002 N005 0 N007 N001 N004 IN N008 LTC3830-1
Rload OUT 0 5
.model D D
.lib C:\users\brian\My Documents\LTspiceXVII\lib\cmp\standard.dio
.model NMOS NMOS
.model PMOS PMOS
.lib C:\users\brian\My Documents\LTspiceXVII\lib\cmp\standard.mos
.tran 1m startup
.lib LTC3830-1.sub
.backanno
.end
