* Z:\mnt\design.r\spice\examples\3894.asc
XU1 N004 IN MP_01 MP_02 N002 OUT N008 N005 N005 N007 0 NC_03 N006 0 0 NC_04 MP_05 N003 MP_06 IN 0 LTC3894
M§Q1 N001 N004 IN IN FDS4435A
L1 N001 N002 22µ
R1 OUT N002 20m
C1 IN N003 .47µ
C2 OUT 0 330µ
R2 OUT N005 422K
R3 N005 0 80.6K
V1 IN 0 12
C3 N007 0 .1µ
C4 N008 0 3.3n Cpar=47p Rser=5.76K
R4 N006 0 36.5K
D1 0 N001 1N5818
Rload OUT 0 1.67
.model D D
.lib C:\users\brian\My Documents\LTspiceXVII\lib\cmp\standard.dio
.model NMOS NMOS
.model PMOS PMOS
.lib C:\users\brian\My Documents\LTspiceXVII\lib\cmp\standard.mos
.tran 10m startup
.lib LTC3894.sub
.backanno
.end
