* Z:\mnt\design.r\spice\examples\4261.asc
S1 VOUT RTN N005 0 SHORT
S2 VOUT RTN RTN N007 LOAD
S3 VOUT RTN RTN N003 LOAD
V1 0 RTN PWL(0 0 10u -48 200m -48 +10u -48 +1m -48 +1u -48 300m -48)
V2 N005 0 PWL(0 0 200m 0 200.001m 0 220m 0 220.1m 0)
C1 N002 0 .01µ
R1 RTN N002 453K
R2 N002 N004 1
R3 N004 N006 16.9K
R4 N006 0 11.8K
C2 N008 0 .1µ
R5 N016 0 .008
R6 N013 N014 10
M§Q1 VOUT N013 N016 N016 IRF1310
C3 0 N014 .047µ
C4 N001 0 1µ
R7 RTN N001 4K
R8 RTN N003 24K
R9 RTN N007 24K
C5 RTN VOUT 330µ
C6 N011 0 .220µ
C7 N012 0 .047µ
C8 0 N009 .033µ
R10 N009 N015 1K
R11 N010 VOUT 1Meg
C9 N015 VOUT .01µ
XU1 N001 N002 N004 N006 N008 N008 N011 N012 0 N016 N013 N010 N009 N007 N003 0 0 LTC4261 OVRTRY=1 UVRTRY=1 OCRTRY=0 PBRTRY=0
.model NMOS NMOS
.model PMOS PMOS
.lib C:\users\brian\My Documents\LTspiceXVII\lib\cmp\standard.mos
.tran 300m
.model SHORT SW(Ron=10m Roff=1G Vt=1.1 Vh=-.1)
.model LOAD SW(Ron=50 Roff=1G Vt=5 Vh=-1)
.lib LTC4261.sub
.backanno
.end
